rawData/crow3cdf.txt
Kothari and Nagrath Modern Power Systems Example 6.6 Page 218           100.0 3 Bus System
BUS DATA FOLLOWS                             3 ITEMS
   1 Bus 1     HV  1  1  3 1.020  -0.00      0.0      0.0     70.9    28.1     0.0  1.020     0.0     0.0   0.0    0.0        0
   2 Bus 2     HV  1  1  2 1.000  -0.58      0.0      0.0     50.0    -4.5     0.0  1.000     0.0     0.0   0.0    0.0        0
   3 Bus 3     HV  1  1  0 0.982  -3.64    120.0     50.0      0.0     0.0     0.0  0.982     0.0     0.0   0.0    0.0        0
-999 
BRANCH DATA FOLLOWS                          3 ITEMS
   1    2  1  1 1 0  0.02000   0.30000     0.1500     0     0     0    0 0  0.0       0.0 0.0    0.0     0.0    0.0   0.0
   1    3  1  1 1 0  0.01000   0.10000     0.1000     0     0     0    0 0  0.0       0.0 0.0    0.0     0.0    0.0   0.0
   2    3  1  1 1 0  0.01000   0.10000     0.1000     0     0     0    0 0  0.0       0.0 0.0    0.0     0.0    0.0   0.0
-999
END OF DATA
